7
Properties=species:S:1:pos:R:3:forces_var:R:1:forces_var_rel:R:1:forces:R:3 XYZ=T from=T PySCF=T energy_var=9.059906005859375e-06 energy=-25232.15234375 stress="-inf inf inf inf inf inf inf inf nan" free_energy=-25232.15234375 pbc="F F F"
Ti       0.00000000       0.00000000       0.00000000       0.01940146       0.05874660       0.33025673       0.71267664       0.03619287
C        0.61788524       1.98154827       0.08968526       0.04041509       0.16248710      -0.24872795      -0.07234845      -0.01027350
C        1.55779978      -0.76781007       0.01246770       0.01710874       0.60505044       0.02827655      -0.04768141      -0.00103638
H        1.66011527       0.48590099       0.06076517       0.01813058       0.03561727       0.27743366      -0.50903910      -0.01210433
H        1.63329901       2.39707978       0.11776841       0.01308709       0.11738548      -0.11148816      -0.21072918      -0.01004647
H        0.11157007       2.38626742      -0.80383697       0.01441185       0.10429291      -0.13818631       0.06690279      -0.00675431
H        0.09156339       2.31515156       1.00101523       0.01428310       0.10382840      -0.13756451       0.06021870       0.00402210