7
Properties=species:S:1:pos:R:3:forces_var:R:1:forces_var_rel:R:1:forces:R:3 XYZ=T from=T PySCF=T energy_var=9.5367431640625e-07 energy=-25232.46484375 stress="nan -inf inf -inf nan inf inf inf nan" free_energy=-25232.46484375 pbc="F F F"
Ti       0.00000000       0.00000000       0.00000000       0.01523459       8.52861214      -0.00295465      -0.00178629       0.00673016
C        0.87658621       2.23308952      -0.01257145       0.01462110       1.36704934      -0.00893540      -0.01069537      -0.00049599
C        1.27449451      -1.08611635      -0.03054054       0.00653069       6.08604479      -0.00107306       0.00293843      -0.00211274
H        1.56799385       1.34759849      -0.02533020       0.00943533       1.90748966       0.00708641       0.00494646      -0.00084523
H        1.60471116       3.05162048      -0.04638831       0.00369139       1.11740351       0.00330354       0.00278947       0.00116625
H        0.24231786       2.34732642      -0.90759040       0.00725903       1.59893286       0.00324419       0.00453992      -0.00294736
H        0.30376317       2.36350175       0.92020933       0.00782261       2.86268520      -0.00067103      -0.00273261      -0.00149509
7
Properties=species:S:1:pos:R:3:forces_var:R:1:forces_var_rel:R:1:forces:R:3 XYZ=T from=T PySCF=T energy_var=8.106231689453125e-06 energy=-25232.40625 stress="inf -inf -inf -inf -inf -inf -inf -inf nan" free_energy=-25232.40625 pbc="F F F"
Ti       0.00000000       0.00000000       0.00000000       0.02432104       0.05917020      -0.08417583      -0.41103524      -0.01212597
C        0.85719313       2.11364015       0.10104683       0.04491109       0.30153978       0.08185868       0.14893921       0.00663415
C        1.37558283      -0.96749848      -0.00220903       0.02662902       0.22882827      -0.11669774      -0.11637118      -0.00931496
H        1.48196004       1.15754748       0.07818200       0.04359422       0.32487556       0.02118971       0.13418743       0.00416782
H        1.71310564       2.79261224       0.13678331       0.02137268       0.10176364      -0.00513449       0.21002278       0.00981738
H        0.28304715       2.35677389      -0.80914885       0.01307010       0.24358320       0.05365763       0.01789390      -0.00891706
H        0.25758021       2.29097609       1.00981136       0.01305814       0.26486021       0.04930202       0.01636312       0.00973863
7
Properties=species:S:1:pos:R:3:forces_var:R:1:forces_var_rel:R:1:forces:R:3 XYZ=T from=T PySCF=T energy_var=0.00017309188842773438 energy=-25232.1640625 stress="inf -inf -inf -inf -inf -inf -inf -inf nan" free_energy=-25232.1640625 pbc="F F F"
Ti       0.00000000       0.00000000       0.00000000       0.09496970       0.11763599      -0.19856307      -0.80731845      -0.02873162
C        0.79387408       2.01571734       0.09610443       0.03803955       0.42848432       0.27691135       0.08877701       0.00965141
C        1.47821916      -0.83182663       0.00641693       0.09716184       0.42368630      -0.20356184      -0.22932495      -0.01597748
H        1.45673476       0.95790906       0.07146216       0.06533139       0.26053447      -0.25075912       0.78817451       0.02090919
H        1.71469129       2.60071430       0.12866638       0.02635663       0.42620724       0.06183993       0.30574429       0.01550882
H        0.22329435       2.33994657      -0.79753550       0.02593512       0.16188768       0.16020440      -0.07407046       0.00152840
H        0.20013236       2.27353568       0.99581784       0.02618944       0.17014058       0.15392826      -0.07198200      -0.00288873
7
Properties=species:S:1:pos:R:3:forces_var:R:1:forces_var_rel:R:1:forces:R:3 XYZ=T from=T PySCF=T energy_var=2.86102294921875e-06 energy=-25231.97265625 stress="nan -inf inf -inf nan inf inf inf -inf" free_energy=-25231.97265625 pbc="F F F"
Ti       0.00000000       0.00000000       0.00000000       0.03012175       2.79703259       0.01076918      -0.01049040       0.00436751
C        0.71307623       1.99351794       0.09309684       0.01539120       1.06979644      -0.01438703       0.00249228      -0.00003219
C        1.54051995      -0.75286607       0.01096131       0.02360076       1.36300790      -0.01731520       0.00508818      -0.00205894
H        1.53500502       0.72652427       0.06543042       0.00701725       9.45763779       0.00695218      -0.00074197      -0.00152388
H        1.68731267       2.49174474       0.12366372       0.00610337       0.67736632       0.00471063       0.00901045       0.00236904
H        0.17834287       2.36085410      -0.80327950       0.00644160       3.92732215       0.00602427      -0.00164020      -0.00259091
H        0.15605279       2.29242705       1.00107494       0.00660987       1.77762663       0.00324596      -0.00371837      -0.00053063
7
Properties=species:S:1:pos:R:3:forces_var:R:1:forces_var_rel:R:1:forces:R:3 XYZ=T from=T PySCF=T energy_var=9.059906005859375e-06 energy=-25232.15234375 stress="-inf inf inf inf inf inf inf inf nan" free_energy=-25232.15234375 pbc="F F F"
Ti       0.00000000       0.00000000       0.00000000       0.01940146       0.05874660       0.33025673       0.71267664       0.03619287
C        0.61788524       1.98154827       0.08968526       0.04041509       0.16248710      -0.24872795      -0.07234845      -0.01027350
C        1.55779978      -0.76781007       0.01246770       0.01710874       0.60505044       0.02827655      -0.04768141      -0.00103638
H        1.66011527       0.48590099       0.06076517       0.01813058       0.03561727       0.27743366      -0.50903910      -0.01210433
H        1.63329901       2.39707978       0.11776841       0.01308709       0.11738548      -0.11148816      -0.21072918      -0.01004647
H        0.11157007       2.38626742      -0.80383697       0.01441185       0.10429291      -0.13818631       0.06690279      -0.00675431
H        0.09156339       2.31515156       1.00101523       0.01428310       0.10382840      -0.13756451       0.06021870       0.00402210
7
Properties=species:S:1:pos:R:3:forces_var:R:1:forces_var_rel:R:1:forces:R:3 XYZ=T from=T PySCF=T energy_var=5.245208740234375e-06 energy=-25232.33203125 stress="nan inf inf inf inf inf inf inf nan" free_energy=-25232.33203125 pbc="F F F"
Ti       0.00000000       0.00000000       0.00000000       0.03741164       0.11557929       0.32368806       0.51966035       0.02721680
C        0.52997093       1.95347513       0.08551270       0.02831058       0.35452464      -0.10959898      -0.07985504      -0.00729716
C        1.51166025      -0.87346852       0.01151198       0.02952461       0.59562021      -0.04956952      -0.12733439      -0.00407615
H        1.79148688       0.27212632       0.06008938       0.01975711       0.16827124       0.11741228      -0.24098469      -0.00581686
H        1.55939331       2.32432185       0.10890897       0.01037750       0.13349159      -0.07773899      -0.08352853      -0.00552454
H        0.02141369       2.37350951      -0.80150634       0.01306432       1.50494802      -0.10337210       0.00868091      -0.00016431
H        0.00884450       2.29784716       0.99787214       0.01177419       3.50272298      -0.10082074       0.00336144      -0.00433778
7
Properties=species:S:1:pos:R:3:forces_var:R:1:forces_var_rel:R:1:forces:R:3 XYZ=T from=T PySCF=T energy_var=3.9577484130859375e-05 energy=-25232.4140625 stress="-inf inf inf inf nan inf inf inf nan" free_energy=-25232.4140625 pbc="F F F"
Ti       0.00000000       0.00000000       0.00000000       0.06402244       0.42535546       0.15051514       0.32411328       0.01372220
C        0.48444857       1.94580346       0.08121203       0.04086633       0.81154215      -0.08371686      -0.05035638      -0.00303908
C        1.45002158      -0.97556269       0.01037771       0.07570106       2.08796763      -0.03625586      -0.14779986      -0.00583874
H        1.95118211       0.05502842       0.05887058       0.05712429       0.62495685       0.10950238      -0.09140518       0.00146509
H        1.49449756       2.36332460       0.10364201       0.03206787       1.67692375      -0.02833475      -0.01912303      -0.00322871
H       -0.05644964       2.33226991      -0.80385225       0.02085378       2.64556861      -0.05728777      -0.00788253       0.00717292
H       -0.06329016       2.25344102       0.99309941       0.02128456       2.82053828      -0.05442226      -0.00754628      -0.01025368
7
Properties=species:S:1:pos:R:3:forces_var:R:1:forces_var_rel:R:1:forces:R:3 XYZ=T from=T PySCF=T energy_var=0.00015020370483398438 energy=-25232.53515625 stress="-inf inf -inf inf inf inf -inf inf nan" free_energy=-25232.53515625 pbc="F F F"
Ti       0.00000000       0.00000000       0.00000000       0.13063490       0.22776654      -0.57354736       0.15500298      -0.01893877
C        0.45601473       1.94359498       0.07944989       0.02926545       0.98492706      -0.02971331       0.01571643       0.00370789
C        1.51958917      -0.89822774       0.02503809       0.12572721       0.78417790       0.16032995       0.04116721       0.00730692
H        2.32826469      -0.14436784       0.07128145       0.06714138       0.12879042       0.52132273      -0.17879902       0.01228908
H        1.47201033       2.34757216       0.09789718       0.02825256       0.38370314      -0.03123652      -0.07363129      -0.00474726
H       -0.08785991       2.33081961      -0.80285846       0.01765981       0.92938960      -0.02530605       0.01900152      -0.00163129
H       -0.08844819       2.25125483       0.99268442       0.01651505       0.76663661      -0.02184946       0.02154221       0.00201343
7
Properties=species:S:1:pos:R:3:forces_var:R:1:forces_var_rel:R:1:forces:R:3 XYZ=T from=T PySCF=T energy_var=4.76837158203125e-06 energy=-25232.908203125 stress="-inf inf -inf inf inf inf -inf inf nan" free_energy=-25232.908203125 pbc="F F F"
Ti       0.00000000       0.00000000       0.00000000       0.03704629       0.03615542      -1.02463996       0.06627766      -0.04117815
C        0.44825910       1.93567132       0.07892556       0.02710531       0.71209592      -0.03315334      -0.03806412      -0.00045644
C        1.63934462      -0.72117722       0.04288118       0.04131583       0.14740403       0.28028971       0.42006463       0.02215234
H        2.65168187      -0.33155943       0.08790012       0.02473481       0.03140767       0.78754044      -0.41795865       0.01905419
H        1.47035177       2.32245147       0.09399595       0.01146388       0.15316129      -0.00709852      -0.07484839      -0.00368381
H       -0.09274566       2.33101179      -0.80284953       0.01269200       0.60060495      -0.00323676       0.02113203       0.00068787
H       -0.08762049       2.24935910       0.99603522       0.01195901       0.51113677       0.00029837       0.02339688       0.00342400
7
Properties=species:S:1:pos:R:3:forces_var:R:1:forces_var_rel:R:1:forces:R:3 XYZ=T from=T PySCF=T energy_var=1.621246337890625e-05 energy=-25233.2109375 stress="-inf inf -inf inf -inf inf -inf inf nan" free_energy=-25233.2109375 pbc="F F F"
Ti       0.00000000       0.00000000       0.00000000       0.01552428       2.32029080      -0.00669066       0.02366886      -0.00717619
C        0.40162183       1.93960317       0.06193888       0.01566806       1.69061887      -0.01666466       0.00926764      -0.00460588
C        1.73362113      -0.52742546       0.18801408       0.01379128       0.37559170       0.03018764       0.03671880       0.00868717
H        2.81394266      -0.68122608       0.30186138       0.00683668       0.16394733       0.04170049      -0.08286435       0.00588487
H        1.41537318       2.33438772      -0.03578268       0.01069227       0.83651215      -0.01597785      -0.01278196      -0.00506269
H       -0.24280934       2.32875324      -0.75101619       0.00955854       0.49860984      -0.02169410       0.01917038      -0.00114698
H       -0.02488854       2.23204128       1.04022107       0.00596954       1.74563694      -0.01086091       0.00682060       0.00341969
7
Properties=species:S:1:pos:R:3:forces_var:R:1:forces_var_rel:R:1:forces:R:3 XYZ=T from=T PySCF=T energy_var=4.76837158203125e-06 energy=-25233.224609375 stress="nan inf -inf inf -inf inf -inf inf -inf" free_energy=-25233.224609375 pbc="F F F"
Ti       0.00000000       0.00000000       0.00000000       0.00279398       0.34963715       0.00799109       0.00624402      -0.00408263
C        0.38851753       1.93771670       0.13663072       0.00223398       2.32275081      -0.00156382       0.00096178      -0.00163105
C        1.64056492      -0.62457513       0.51067414       0.00267032       0.16067849       0.01661903      -0.00498162       0.00790545
H        2.65610309      -0.90795236       0.81970599       0.00172613       0.16738291      -0.01031246      -0.00782119      -0.00062245
H        1.37006625       2.29864078      -0.18568541       0.00138481       0.69117320      -0.00465480      -0.00200357      -0.00362245
H       -0.41196744       2.37954125      -0.49015005       0.00209518       0.30373588      -0.00825725       0.00689804       0.00194168
H        0.22436532       2.20513678       1.19434321       0.00130942       1.86383903       0.00017822       0.00070254       0.00011144
7
Properties=species:S:1:pos:R:3:forces_var:R:1:forces_var_rel:R:1:forces:R:3 XYZ=T from=T PySCF=T energy_var=4.76837158203125e-06 energy=-25233.228515625 stress="-inf -inf -inf -inf -inf -inf -inf -inf -inf" free_energy=-25233.228515625 pbc="F F F"
Ti       0.00000000       0.00000000       0.00000000       0.00073718       0.03112928      -0.01549884      -0.02368119      -0.01064902
C        0.41653064       1.90684037       0.33302064       0.00173601       0.39746550       0.00436771       0.00663025      -0.00143960
C        1.48562563      -0.76908130       0.74295872       0.00166777       3.24745703      -0.00051356       0.00457297       0.00261641
H        2.40107440      -1.16049172       1.20650786       0.00098998       0.13830967       0.00347071       0.00715768       0.00090799
H        1.33835282       2.23499477      -0.16588905       0.00101364       1.63307607       0.00283686      -0.00062070       0.00221479
H       -0.46290307       2.40790248      -0.12048210       0.00055507       0.37034035       0.00149881       0.00625880       0.00153859
H        0.47431587       2.14097526       1.40479410       0.00094726       2.98057127       0.00383832      -0.00031781       0.00481082
